/*--------------------------------*- C++ -*----------------------------------*\
| =========                 |                                                 |
| \\      /  F ield         | OpenFOAM: The Open Source CFD Toolbox           |
|  \\    /   O peration     | Version:  plus                                  |
|   \\  /    A nd           | Web:      www.OpenFOAM.com                      |
|    \\/     M anipulation  |                                                 |
\*---------------------------------------------------------------------------*/
FoamFile
{
    version     2.0;
    format      ascii;
    class       dictionary;
    location    "system";
    object      controlDict;
}
// * * * * * * * * * * * * * * * * * * * * * * * * * * * * * * * * * * * * * //

application     rhoPimpleFoam;

startFrom       latestTime;

startTime       __DELTAT__;

stopAt		    endTime;

endTime         10;

deltaT          __DELTAT__;

writeControl    timeStep;

writeInterval   __WRITEINTERVAL__;

purgeWrite      3;

writeFormat     ascii;

writePrecision  16;

writeCompression off;

timeFormat      general;

timePrecision   16;

runTimeModifiable true;

adjustTimeStep  __ADUSTABLETIMESTEP__;

maxCo           0.4; //maximale courant number

libs (
    "libfieldFunctionObjects.so"
    "libsampling.so"
    "libAdvectiveFields.so"
    "libWaveTransmissiveFields.so"
    "libDFSEM_WaveTransmissive_synthWake.so"
    );


    functions
    {
        //__globalsetting__inletoutletfieldave_probing__//
        //__globalsetting__inletoutletvelocity_probing__//
        //__globalsetting__xslice_probing__//
        //__globalsetting__midspanslice_probing__//
        //__globalsetting__profile_probing__//
        //__globalsetting__streamline_probing__//
        //__globalsetting__vk_stagnationflow_probing__//
    }
//}

// ************************************************************************* //
