/*--------------------------------*- C++ -*----------------------------------*\
| =========                 |                                                 |
| \\      /  F ield         | OpenFOAM: The Open Source CFD Toolbox           |
|  \\    /   O peration     | Version:  plus                                  |
|   \\  /    A nd           | Web:      www.OpenFOAM.com                      |
|    \\/     M anipulation  |                                                 |
\*---------------------------------------------------------------------------*/
FoamFile
{
    version     2.0;
    format      ascii;
    class       dictionary;
    location    "system";
    object      fvSchemes;
}
// * * * * * * * * * * * * * * * * * * * * * * * * * * * * * * * * * * * * * //

ddtSchemes
{
    default           <var TIMEDTTSCHEME var>;
}

gradSchemes
{
    default         <var GRADSCHEMES var>;
}

divSchemes
{
    default         <var DIVSCHEMES var>;
    //div(phi,U)      Gauss linear;
    //div(phi,k)      Gauss limitedLinear 1;
    //div(phi,B)      Gauss limitedLinear 1;
    //div(B)          Gauss linear;
    //div(phi,nuTilda) Gauss limitedLinear 1;
    //div((nuEff*dev2(T(grad(U))))) Gauss linear;
}

//Gauss limitedLinear 1 zweiter Ordnung limited
//Gauss linear zweiter Ordnung
//Gauss upwind erster Ordnung
//Gauss corrected zweiter Ordnung (irgendwas mit nichtorthogonalität)
//https://cfd.direct/openfoam/user-guide/v6-fvschemes/

laplacianSchemes
{
    default         Gauss linear corrected;
}

interpolationSchemes
{
    default         linear;
}

snGradSchemes
{
    default         corrected;
}

wallDist
{
    method meshWave;
}


// ************************************************************************* //
