/*--------------------------------*- C++ -*----------------------------------*\
| =========                 |                                                 |
| \\      /  F ield         | OpenFOAM: The Open Source CFD Toolbox           |
|  \\    /   O peration     | Version:  2.1.x                                 |
|   \\  /    A nd           | Web:      www.OpenFOAM.org                      |
|    \\/     M anipulation  |                                                 |
\*---------------------------------------------------------------------------*/
FoamFile
{
    version     2.0;
    format      ascii;
    class       dictionary;
    location    "system";
    object      decomposeParDict;
}
// * * * * * * * * * * * * * * * * * * * * * * * * * * * * * * * * * * * * * //

numberOfSubdomains 1080;

method          hierarchical;

simpleCoeffs
{
    n               (2 6 12 );
    delta           0.0001;
}

hierarchicalCoeffs
{
    n               (108 2 5 );
    delta           0.000001;
    order           xyz;
}

manualCoeffs
{
    dataFile        "";
}

scotchCoeffs
{

}


distributed     no;

roots           ( );


// ************************************************************************* //
