/*--------------------------------*- C++ -*----------------------------------*\
| =========                 |                                                 |
| \\      /  F ield         | OpenFOAM: The Open Source CFD Toolbox           |
|  \\    /   O peration     | Version:  2.2.0                                 |
|   \\  /    A nd           | Web:      www.OpenFOAM.org                      |
|    \\/     M anipulation  |                                                 |
\*---------------------------------------------------------------------------*/
FoamFile
{
    version     2.0;
    format      ascii;
    class       dictionary;
    location    "system";
    object      fvSchemes;
}
// * * * * * * * * * * * * * * * * * * * * * * * * * * * * * * * * * * * * * //

fluxScheme      Kurganov;

ddtSchemes
{
    default           <var TIMEDTTSCHEME var>;
//  default           backward;  //implizit zweiter ordnung
//  default	          Euler;	 //implizit erster ordnung
//  default	          CrankNicolson 0.1; //implizit (1) zweiter ordnung (0) erster ordnung, Blending
}

gradSchemes
{
    default         <var GRADSCHEMES_DEFAULT var>;
}

divSchemes
{
    
    default                             <var DIVSCHEMES_DEFAULT var>;
    div(phi,U)                          <var DIV_PHIU var>;
    div(phi,e)                          <var DIV_PHIE var>;
    div(phi,K)                          <var DIV_PHIKK var>;
    div(phiv,p)                         <var DIV_PHIK var>;
    div(phi,k)                          <var DIV_PHIP var>;
    div(phi,B)                          <var DIV_PHIB var>;
    div(phi,muTilda)                    <var DIV_PHINUTILDA var>;
    div(B)                              <var DIV_BBB var>;
    div((nuEff*dev2(T(grad(U)))))       <var DIV_PHIK var>;
    div(((rho*nuEff)*dev2(T(grad(U))))) <var DIV_NUEFF var>;
    div(meshPhi,p)			            <var DIV_RHONUEFF var>;
    
}

laplacianSchemes
{
    default         Gauss linear corrected;
}

interpolationSchemes
{
    default          linear;
}

snGradSchemes
{
    default         corrected;
}

fluxRequired
{
    default         no;
    p               ;
}

// ************************************************************************* //
