/*--------------------------------*- C++ -*----------------------------------*\
| =========                 |                                                 |
| \\      /  F ield         | OpenFOAM: The Open Source CFD Toolbox           |
|  \\    /   O peration     | Version:  plus                                  |
|   \\  /    A nd           | Web:      www.OpenFOAM.com                      |
|    \\/     M anipulation  |                                                 |
\*---------------------------------------------------------------------------*/
FoamFile
{
    version     2.0;
    format      ascii;
    class       dictionary;
    location    "system";
    object      controlDict;
}
// * * * * * * * * * * * * * * * * * * * * * * * * * * * * * * * * * * * * * //

application     rhoPimpleFoam;

startFrom       latestTime;

startTime       __DELTAT__;

stopAt		    endTime;

endTime         10;

deltaT          __DELTAT__;

writeControl    timeStep;

writeInterval   __WRITEINTERVAL__;

purgeWrite      3;

writeFormat     ascii;

writePrecision  16;

writeCompression off;

timeFormat      general;

timePrecision   16;

runTimeModifiable true;

adjustTimeStep  __ADUSTABLETIMESTEP__;

maxCo           0.4; //maximale courant number

libs (
"libfieldFunctionObjects.so"
"libsampling.so"
"libAdvectiveFields.so"
"libWaveTransmissiveFields.so"
"libDFSEM_WaveTransmissive_synthWake.so"
);


functions
{

//__massflow_probing__//
//__residual_probing__//
//__inletoutlet_probing__//
//__xslice_probing__//
//__fieldave_probing__//
//__profile_probing__//
//__streamline_probing__//

}

// ************************************************************************* //
