/*--------------------------------*- C++ -*----------------------------------*\
| =========                 |                                                 |
| \\      /  F ield         | OpenFOAM: The Open Source CFD Toolbox           |
|  \\    /   O peration     | Version:  plus                                  |
|   \\  /    A nd           | Web:      www.OpenFOAM.com                      |
|    \\/     M anipulation  |                                                 |
\*---------------------------------------------------------------------------*/
FoamFile
{
    version     2.0;
    format      ascii;
    class       volVectorField;
    location    "1";
    object      U;
}
// * * * * * * * * * * * * * * * * * * * * * * * * * * * * * * * * * * * * * //

dimensions      [0 1 -1 0 0 0 0];

internalField   uniform (<var UMEAN var> 0 0); //UTexas -> U_mean

boundaryField
{
    bottomWall
    {
        type            noSlip;
    }
    topWall
    {
        type            noSlip;
    }
    sides_half0
    {
        type            cyclic;
    }
    sides_half1
    {
        type            cyclic;
    }

    INLET
    {
       type                            turbulentDFSEMWaveTransmissiveInletMod;
       cyclicZ         <var GEO_WIDTH var>; #s.o. nur in Z-Richtung abstand der periodischen raender
       boxScale                        1; //unwichtig
       d                               10; // dichte der virtuellen eddiwes
       uDashScaling                    <var UDASHSCALING var>; //skalierug, so lassen
       nCellPerEddy                    1;
       lastUPrime                      uniform (0.0001 0.0001 0.0001);
       gamma                           1.4;
       lInf                            0.02;
       fieldInf                        uniform (<var UMEAN var> 0 0);
       relax                           0.0001;
       L                               uniform 0.0015;
       U                                uniform (1 0 0);
       R                                uniform (1 0 0 1 0 1);
       mapMethod                       cellVolumeWeight;
       value                           uniform (<var UMEAN var> 0 0);

       numberOfWakes                   1;
       startBlendRelChannelHeight       1;
       endBlendRelChannelHeight       1;
       y_min                           0;
       y_max                           1;
       pitchSpeed                      0.0;
       shapeWake                       0.0;
       stretchWake                      0.0;
    }

    OUTLET
    {
     	type            waveTransmissive;
        gamma           1.4;
        value           uniform (<var UMEAN var> 0 0);
    }

}


// ************************************************************************* //
