/*--------------------------------*- C++ -*----------------------------------*\
| =========                 |                                                 |
| \\      /  F ield         | OpenFOAM: The Open Source CFD Toolbox           |
|  \\    /   O peration     | Version:  plus                                  |
|   \\  /    A nd           | Web:      www.OpenFOAM.com                      |
|    \\/     M anipulation  |                                                 |
\*---------------------------------------------------------------------------*/
FoamFile
{
    version     2.0;
    format      ascii;
    class       volVectorField;
    location    "1";
    object      U;
}
// * * * * * * * * * * * * * * * * * * * * * * * * * * * * * * * * * * * * * //

dimensions      [0 1 -1 0 0 0 0];

//internalField   uniform (0.1335 0 0); //org_tut
internalField   uniform (1 0 0); //UTexas -> U_mean

boundaryField
{
    bottomWall
    {
        type            noSlip;
    }
    topWall
    {
        type            noSlip;
    }
    sides_half0
    {
        type            cyclic;
    }
    sides_half1
    {
        type            cyclic;
    }
    INLET
    {
        type            cyclic;
    }
    OUTLET
    {
        type            cyclic;
    }

}


// ************************************************************************* //
