/*--------------------------------*- C++ -*----------------------------------*\
| ========= | | \\ / F ield | OpenFOAM: The Open Source CFD Toolbox  	      |
|  \\ / O peration | Version: v1906 	   				      |
|   \\ / A nd | Web: www.OpenFOAM.com   				      |
|    \\/ M anipulation | 						      |
\*---------------------------------------------------------------------------*/ 
FoamFile 
{
    version 2.0;
    format ascii;
    class dictionary;
    location "constant";
    object thermophysicalProperties;
}
// * * * * * * * * * * * * * * * * * * * * * * * * * * * * * * * * * * * * * // 
thermoType 
{
    type hePsiThermo;
    mixture pureMixture;
    transport sutherland;
    thermo hConst;
    equationOfState perfectGas;
    specie specie;
    energy sensibleEnthalpy;
}
mixture
{
    specie
    {
        nMoles      1;
        molWeight   28.96;      //Air [g/mol]
    }
    thermodynamics
    {
        Cp          1000.5;      //air
        Hf          0;
    }
    transport
    {
//        mu          20e-6;      //dynamische viskositaet, aehnlich Luft
	As          1.4792e-06;
	Ts          116;
//        Pr          0.7;        //prandtl-zahl, aehnlich Luft
    }
}

}
// ************************************************************************* //
